resultados/CN12/cn15_80_volts.csv
Bus, BasekV, Node1, Magnitude1, Angle1, pu1, Node2, Magnitude2, Angle2, pu2, Node3, Magnitude3, Angle3, pu3
"SCN_CN15_9199_CEI77A_ATV", 13.8, 1,    7941.66,   -0.2,   0.99677, 2,    7941.66, -120.2,   0.99677, 3,    7941.66,  119.8,   0.99677
"SCN_CN15_9153_CEI109", 13.8, 1,    6581.44,   -3.4,   0.82604, 2,    6581.42, -123.4,   0.82604, 3,    6581.43,  116.6,   0.82604
"SCN_CN15_9154_CEI109", 13.8, 1,    6581.46,   -3.4,   0.82604, 2,    6581.44, -123.4,   0.82604, 3,    6581.45,  116.6,   0.82604
"SCN_CN15_9098_CEI131_ATV", 13.8, 1,    6641.26,   -3.2,   0.83355, 2,    6641.25, -123.2,   0.83355, 3,    6641.25,  116.8,   0.83355
"SCN_CN15_9097_CEI131_ATV", 13.8, 1,    6641.26,   -3.2,   0.83355, 2,    6641.25, -123.2,   0.83355, 3,    6641.26,  116.8,   0.83355
"SCN_CN15_9079_CEI201_ATV", 13.8, 1,    6708.21,   -2.9,   0.84195, 2,     6708.2, -122.9,   0.84195, 3,    6708.21,  117.1,   0.84195
"SCN_CN15_9080_CEI201_ATV", 13.8, 1,    6708.21,   -2.9,   0.84195, 2,     6708.2, -122.9,   0.84195, 3,     6708.2,  117.1,   0.84195
"SCN_CN15_9356_CEI109", 13.8, 1,    6561.74,   -3.5,   0.82357, 2,    6561.72, -123.5,   0.82357, 3,    6561.73,  116.5,   0.82357
"SCN_CN15_9349_CEI109", 13.8, 1,    6562.08,   -3.5,   0.82361, 2,    6562.06, -123.5,   0.82361, 3,    6562.07,  116.5,   0.82361
"SCN_CN15_9039_CEI201_ATV", 13.8, 1,    6562.24,   -3.5,   0.82363, 2,    6562.23, -123.5,   0.82363, 3,    6562.23,  116.5,   0.82363
"SCN_CN15_9021_CEI201_ATV", 13.8, 1,    6559.15,   -3.5,   0.82324, 2,    6559.13, -123.5,   0.82324, 3,    6559.14,  116.5,   0.82324
"SCN_CN15_9022_CEI201_ATV", 13.8, 1,    6559.28,   -3.5,   0.82326, 2,    6559.27, -123.5,   0.82326, 3,    6559.27,  116.5,   0.82326
"SCN_CN15_9274_CEI109", 13.8, 1,    6610.41,   -3.3,   0.82968, 2,     6610.4, -123.3,   0.82968, 3,     6610.4,  116.7,   0.82968
"SCN_CN15_9275_CEI109", 13.8, 1,    6609.46,   -3.3,   0.82956, 2,    6609.44, -123.3,   0.82956, 3,    6609.45,  116.7,   0.82956
"SCN_CN15_9269_CEI109", 13.8, 1,    6611.36,   -3.3,    0.8298, 2,    6611.34, -123.3,    0.8298, 3,    6611.35,  116.7,    0.8298
"SCN_CN15_9053_CEI201_ATV", 13.8, 1,    6563.76,   -3.5,   0.82382, 2,    6563.75, -123.5,   0.82382, 3,    6563.75,  116.5,   0.82382
"SCN_CN15_9485_CEI109", 13.8, 1,    6563.77,   -3.5,   0.82383, 2,    6563.76, -123.5,   0.82382, 3,    6563.77,  116.5,   0.82382
"SCN_CN15_421165_CEI", 13.8, 1,    6717.03,   -2.9,   0.84306, 2,    6717.02, -122.9,   0.84306, 3,    6717.02,  117.1,   0.84306
"SCN_CN15_421166_CEI", 13.8, 1,    6717.52,   -2.9,   0.84312, 2,    6717.51, -122.9,   0.84312, 3,    6717.51,  117.1,   0.84312
"SCN_CN15_9143_CEI69B", 13.8, 1,    6717.95,   -2.9,   0.84318, 2,    6717.94, -122.9,   0.84317, 3,    6717.94,  117.1,   0.84318
"SCN_CN15_9141_CEI201_ATV", 13.8, 1,    6717.03,   -2.9,   0.84306, 2,    6717.02, -122.9,   0.84306, 3,    6717.02,  117.1,   0.84306
"SCN_CN15_9129_CEI201_ATV", 13.8, 1,    6721.46,   -2.8,   0.84362, 2,    6721.45, -122.8,   0.84362, 3,    6721.45,  117.2,   0.84362
"SCN_CN15_9008_CEI220_ATV", 13.8, 1,    6721.46,   -2.8,   0.84362, 2,    6721.45, -122.8,   0.84362, 3,    6721.45,  117.2,   0.84362
"SCN_CN15_421168_CEI", 13.8, 1,    6636.11,   -3.2,    0.8329, 2,    6636.09, -123.2,    0.8329, 3,     6636.1,  116.8,    0.8329
"SCN_CN15_9015_CEI109", 13.8, 1,    6636.11,   -3.2,    0.8329, 2,    6636.09, -123.2,    0.8329, 3,     6636.1,  116.8,    0.8329
"SCN_CN15_421185_CEI", 13.8, 1,    6660.34,   -3.1,   0.83595, 2,    6660.32, -123.1,   0.83594, 3,    6660.33,  116.9,   0.83594
"SCN_CN15_9162_CEI220_ATV_S", 13.8, 1,    6659.08,   -3.1,   0.83579, 2,    6659.07, -123.1,   0.83579, 3,    6659.08,  116.9,   0.83579
"SCN_CN15_421186_CEI", 13.8, 1,    6661.28,   -3.1,   0.83606, 2,    6661.26, -123.1,   0.83606, 3,    6661.27,  116.9,   0.83606
"SCN_CN15_421187_CEI", 13.8, 1,    6662.37,   -3.1,    0.8362, 2,    6662.36, -123.1,    0.8362, 3,    6662.37,  116.9,    0.8362
"SCN_CN15_421169_CEI", 13.8, 1,    6663.94,   -3.1,    0.8364, 2,    6663.92, -123.1,    0.8364, 3,    6663.93,  116.9,    0.8364
"SCN_CN15_9012_CEI120", 13.8, 1,    6663.02,   -3.1,   0.83628, 2,       6663, -123.1,   0.83628, 3,    6663.01,  116.9,   0.83628
"SCN_CN15_421170_CEI", 13.8, 1,    6671.24,   -3.1,   0.83731, 2,    6671.23, -123.1,   0.83731, 3,    6671.24,  116.9,   0.83731
"SCN_CN15_421171_CEI", 13.8, 1,    6671.24,   -3.1,   0.83731, 2,    6671.23, -123.1,   0.83731, 3,    6671.24,  116.9,   0.83731
"SCN_CN15_421172_CEI", 13.8, 1,    6671.24,   -3.1,   0.83731, 2,    6671.23, -123.1,   0.83731, 3,    6671.24,  116.9,   0.83731
"SCN_CN15_421173_CEI", 13.8, 1,    6671.24,   -3.1,   0.83731, 2,    6671.23, -123.1,   0.83731, 3,    6671.24,  116.9,   0.83731
"SCN_CN15_421174_CEI", 13.8, 1,    6671.24,   -3.1,   0.83731, 2,    6671.23, -123.1,   0.83731, 3,    6671.24,  116.9,   0.83731
"SCN_CN15_421175_CEI", 13.8, 1,    6677.61,   -3.1,   0.83811, 2,     6677.6, -123.1,   0.83811, 3,    6677.61,  116.9,   0.83811
"SCN_CN15_421176_CEI", 13.8, 1,    6677.61,   -3.1,   0.83811, 2,     6677.6, -123.1,   0.83811, 3,    6677.61,  116.9,   0.83811
"SCN_CN15_421177_CEI", 13.8, 1,    6677.61,   -3.1,   0.83811, 2,     6677.6, -123.1,   0.83811, 3,    6677.61,  116.9,   0.83811
"SCN_CN15_421178_CEI", 13.8, 1,    6677.61,   -3.1,   0.83811, 2,     6677.6, -123.1,   0.83811, 3,    6677.61,  116.9,   0.83811
"SCN_CN15_421179_CEI", 13.8, 1,     6691.1,   -3.0,   0.83981, 2,    6691.09, -123.0,   0.83981, 3,     6691.1,  117.0,   0.83981
"SCN_CN15_9047_CEI130_ATV", 13.8, 1,    6709.92,   -3.0,   0.84217, 2,    6709.91, -123.0,   0.84217, 3,    6709.92,  117.0,   0.84217
"SCN_CN15_421180_CEI", 13.8, 1,    6709.92,   -3.0,   0.84217, 2,    6709.91, -123.0,   0.84217, 3,    6709.92,  117.0,   0.84217
"SCN_CN15_9037_CEI130_ATV", 13.8, 1,    6742.29,   -2.8,   0.84623, 2,    6742.28, -122.8,   0.84623, 3,    6742.28,  117.2,   0.84623
"SCN_CN15_9047_CEI130_ATV_S", 13.8, 1,    6709.92,   -3.0,   0.84217, 2,    6709.91, -123.0,   0.84217, 3,    6709.92,  117.0,   0.84217
"SCN_CN15_421181_CEI", 13.8, 1,    6749.17,   -2.8,   0.84709, 2,    6749.15, -122.8,   0.84709, 3,    6749.16,  117.2,   0.84709
"SCN_CN15_9040_CEI130_ATV", 13.8, 1,    6749.17,   -2.8,   0.84709, 2,    6749.15, -122.8,   0.84709, 3,    6749.16,  117.2,   0.84709
"SCN_CN15_421182_CEI", 13.8, 1,    6749.17,   -2.8,   0.84709, 2,    6749.15, -122.8,   0.84709, 3,    6749.16,  117.2,   0.84709
"SCN_CN15_421183_CEI", 13.8, 1,    6749.17,   -2.8,   0.84709, 2,    6749.15, -122.8,   0.84709, 3,    6749.16,  117.2,   0.84709
"SCN_CN15_421184_CEI", 13.8, 1,    6749.17,   -2.8,   0.84709, 2,    6749.15, -122.8,   0.84709, 3,    6749.16,  117.2,   0.84709
"SCN_CN15_421195_CEI", 13.8, 1,    6780.54,   -2.7,   0.85103, 2,    6780.53, -122.7,   0.85103, 3,    6780.53,  117.3,   0.85103
"SCN_CN15_9022_CEI250_ATV", 13.8, 1,     6779.2,   -2.7,   0.85086, 2,    6779.18, -122.7,   0.85086, 3,    6779.19,  117.3,   0.85086
"SCN_CN15_421196_CEI", 13.8, 1,    6782.44,   -2.7,   0.85127, 2,    6782.43, -122.7,   0.85127, 3,    6782.43,  117.3,   0.85127
"SCN_CN15_9025_CEI130_ATV", 13.8, 1,       6784,   -2.7,   0.85147, 2,    6783.99, -122.7,   0.85146, 3,    6783.99,  117.3,   0.85147
"SCN_CN15_421197_CEI", 13.8, 1,     6709.7,   -3.0,   0.84214, 2,    6709.69, -123.0,   0.84214, 3,    6709.69,  117.0,   0.84214
"SCN_CN15_9004_CEI160_ATV", 13.8, 1,     6709.7,   -3.0,   0.84214, 2,    6709.69, -123.0,   0.84214, 3,    6709.69,  117.0,   0.84214
"SCN_CN15_9005_CEI160_ATV", 13.8, 1,     6709.7,   -3.0,   0.84214, 2,    6709.69, -123.0,   0.84214, 3,    6709.69,  117.0,   0.84214
"SCN_CN15_9017_CEI130A_ATV", 13.8, 1,    6915.93,   -2.4,   0.86803, 2,    6915.92, -122.4,   0.86802, 3,    6915.93,  117.6,   0.86802
"SCN_CN15_421206_CEI", 13.8, 1,    6915.93,   -2.4,   0.86803, 2,    6915.92, -122.4,   0.86802, 3,    6915.93,  117.6,   0.86802
"SCN_CN15_9034_CEI130A_ATV", 13.8, 1,    6915.08,   -2.4,   0.86792, 2,    6915.07, -122.4,   0.86792, 3,    6915.08,  117.6,   0.86792
"SCN_CN15_421207_CEI", 13.8, 1,    6915.08,   -2.4,   0.86792, 2,    6915.07, -122.4,   0.86792, 3,    6915.08,  117.6,   0.86792
"SCN_CN15_421208_CEI", 13.8, 1,    6915.08,   -2.4,   0.86792, 2,    6915.07, -122.4,   0.86792, 3,    6915.08,  117.6,   0.86792
"SCN_CN15_421209_CEI", 13.8, 1,    6915.08,   -2.4,   0.86792, 2,    6915.07, -122.4,   0.86792, 3,    6915.08,  117.6,   0.86792
"SCN_CN15_421210_CEI", 13.8, 1,    6915.08,   -2.4,   0.86792, 2,    6915.07, -122.4,   0.86792, 3,    6915.08,  117.6,   0.86792
"SCN_CN15_421211_CEI", 13.8, 1,    6915.08,   -2.4,   0.86792, 2,    6915.07, -122.4,   0.86792, 3,    6915.08,  117.6,   0.86792
"SCN_CN15_421212_CEI", 13.8, 1,    6915.08,   -2.4,   0.86792, 2,    6915.07, -122.4,   0.86792, 3,    6915.08,  117.6,   0.86792
"SCN_CN15_9040_CEI130A_ATV", 13.8, 1,    6915.02,   -2.4,   0.86791, 2,    6915.01, -122.4,   0.86791, 3,    6915.01,  117.6,   0.86791
"SCN_CN15_421213_CEI", 13.8, 1,    6915.02,   -2.4,   0.86791, 2,    6915.01, -122.4,   0.86791, 3,    6915.01,  117.6,   0.86791
"SCN_CN15_421218_CEI", 13.8, 1,    6919.76,   -2.4,   0.86851, 2,    6919.75, -122.4,    0.8685, 3,    6919.76,  117.6,   0.86851
"SCN_CN15_9353_CEI065", 13.8, 1,    6919.76,   -2.4,   0.86851, 2,    6919.75, -122.4,    0.8685, 3,    6919.76,  117.6,   0.86851
"SCN_CN15_421219_CEI", 13.8, 1,    6919.76,   -2.4,   0.86851, 2,    6919.75, -122.4,    0.8685, 3,    6919.76,  117.6,   0.86851
"CN_ALCN15", 13.8, 1,    6919.76,   -2.4,   0.86851, 2,    6919.75, -122.4,    0.8685, 3,    6919.76,  117.6,   0.86851
"SCN_CN15_421227_CEI", 13.8, 1,    6633.09,   -3.0,   0.83253, 2,    6633.08, -123.0,   0.83252, 3,    6633.09,  117.0,   0.83252
"SCN_CN15_9006_CEIRJ013_ATV", 13.8, 1,    6633.09,   -3.0,   0.83253, 2,    6633.08, -123.0,   0.83252, 3,    6633.09,  117.0,   0.83252
"SCN_CN15_9067_CEIRJ006_ATV", 13.8, 1,    6635.33,   -3.0,   0.83281, 2,    6635.32, -123.0,   0.83281, 3,    6635.32,  117.0,   0.83281
"SCN_CN15_9064_CEIRJ006_ATV", 13.8, 1,    6635.33,   -3.0,   0.83281, 2,    6635.32, -123.0,   0.83281, 3,    6635.32,  117.0,   0.83281
"SCN_CN15_421241_CEI", 13.8, 1,    6635.33,   -3.0,   0.83281, 2,    6635.32, -123.0,   0.83281, 3,    6635.32,  117.0,   0.83281
"SCN_CN15_9068_CEIRJ006_ATV", 13.8, 1,    6635.33,   -3.0,   0.83281, 2,    6635.32, -123.0,   0.83281, 3,    6635.32,  117.0,   0.83281
"SCN_CN15_9050_CEI160_ATV", 13.8, 1,    7389.41,   -1.4,   0.92745, 2,    7389.41, -121.4,   0.92745, 3,    7389.41,  118.6,   0.92745
"SCN_CN15_9014_CEI077_ATV", 13.8, 1,    7389.91,   -1.4,   0.92751, 2,    7389.91, -121.4,   0.92751, 3,    7389.91,  118.6,   0.92751
"SCN_CN15_9052_CEI160_ATV", 13.8, 1,    7389.41,   -1.4,   0.92745, 2,    7389.41, -121.4,   0.92745, 3,    7389.41,  118.6,   0.92745
"SCN_CN15_421244_CEI", 13.8, 1,    7388.94,   -1.4,   0.92739, 2,    7388.93, -121.4,   0.92739, 3,    7388.94,  118.6,   0.92739
"SCN_CN15_421245_CEI", 13.8, 1,    7388.45,   -1.4,   0.92733, 2,    7388.44, -121.4,   0.92733, 3,    7388.45,  118.6,   0.92733
"SCN_CN15_9005_CEIRJ012_ATV_S", 13.8, 1,    7387.98,   -1.4,   0.92727, 2,    7387.97, -121.4,   0.92727, 3,    7387.97,  118.6,   0.92727
"SCN_CN15_9024_CEI167_ATV", 13.8, 1,     7414.4,   -1.4,   0.93059, 2,     7414.4, -121.4,   0.93059, 3,     7414.4,  118.6,   0.93059
"SCN_CN15_9025_CEI167_ATV", 13.8, 1,     7414.4,   -1.4,   0.93059, 2,     7414.4, -121.4,   0.93059, 3,     7414.4,  118.6,   0.93059
"SCN_CN15_9002_CEIRJ013_ATV", 13.8, 1,     7414.4,   -1.4,   0.93059, 2,     7414.4, -121.4,   0.93059, 3,     7414.4,  118.6,   0.93059
"SCN_CN15_9037_CEI77A_ATV", 13.8, 1,    7424.59,   -1.4,   0.93187, 2,    7424.58, -121.4,   0.93187, 3,    7424.58,  118.6,   0.93187
"SCN_CN15_9035_CEIRJ006_ATV", 13.8, 1,    7424.59,   -1.4,   0.93187, 2,    7424.58, -121.4,   0.93187, 3,    7424.58,  118.6,   0.93187
"SCN_CN15_9036_CEIRJ006_ATV", 13.8, 1,    7424.59,   -1.4,   0.93187, 2,    7424.58, -121.4,   0.93187, 3,    7424.58,  118.6,   0.93187
"SCN_CN15_9105_CEI201_ATV", 13.8, 1,    6707.57,   -2.9,   0.84187, 2,    6707.56, -122.9,   0.84187, 3,    6707.56,  117.1,   0.84187
"SCN_CN15_9102_CEI201_ATV_S", 13.8, 1,     6707.5,   -2.9,   0.84186, 2,    6707.49, -122.9,   0.84186, 3,    6707.49,  117.1,   0.84186
"SCN_CN15_9017_CEI201_ATV", 13.8, 1,    6558.69,   -3.5,   0.82319, 2,    6558.68, -123.5,   0.82319, 3,    6558.68,  116.5,   0.82319
"SCN_CN15_9019_CEI201_ATV", 13.8, 1,    6558.79,   -3.5,    0.8232, 2,    6558.77, -123.5,    0.8232, 3,    6558.78,  116.5,    0.8232
"SCN_CN15_9019_CEI134C_ATV", 13.8, 1,     6605.3,   -3.3,   0.82904, 2,    6605.29, -123.3,   0.82904, 3,    6605.29,  116.7,   0.82904
"SCN_CN15_9020_CEI134C_ATV", 13.8, 1,    6605.29,   -3.3,   0.82904, 2,    6605.27, -123.3,   0.82903, 3,    6605.28,  116.7,   0.82903
"SCN_CN15_9022_CEI134C_ATV", 13.8, 1,    6605.15,   -3.3,   0.82902, 2,    6605.13, -123.3,   0.82902, 3,    6605.14,  116.7,   0.82902
"SCN_CN15_9021_CEI134C_ATV", 13.8, 1,    6605.11,   -3.3,   0.82901, 2,     6605.1, -123.3,   0.82901, 3,     6605.1,  116.7,   0.82901
"SCN_CN15_9023_CEI134C_ATV", 13.8, 1,    6605.09,   -3.3,   0.82901, 2,    6605.07, -123.3,   0.82901, 3,    6605.08,  116.7,   0.82901
"SCN_CN15_9034_CEI134C_ATV", 13.8, 1,    6605.05,   -3.3,   0.82901, 2,    6605.03, -123.3,     0.829, 3,    6605.04,  116.7,     0.829
"SCN_CN15_9035_CEI134C_ATV", 13.8, 1,    6605.01,   -3.3,     0.829, 2,       6605, -123.3,     0.829, 3,       6605,  116.7,     0.829
"SCN_CN15_9036_CEI134C_ATV", 13.8, 1,    6604.98,   -3.3,     0.829, 2,    6604.97, -123.3,     0.829, 3,    6604.98,  116.7,     0.829
"SCN_CN15_9024_CEI134B_ATV", 13.8, 1,    6607.72,   -3.3,   0.82934, 2,    6607.71, -123.3,   0.82934, 3,    6607.71,  116.7,   0.82934
"SCN_CN15_9027_CEI134B_ATV", 13.8, 1,     6607.7,   -3.3,   0.82934, 2,    6607.69, -123.3,   0.82934, 3,    6607.69,  116.7,   0.82934
"SCN_CN15_9026_CEI134B_ATV", 13.8, 1,    6607.69,   -3.3,   0.82934, 2,    6607.68, -123.3,   0.82934, 3,    6607.68,  116.7,   0.82934
"SCN_CN15_9028_CEI134B_ATV", 13.8, 1,    6607.68,   -3.3,   0.82934, 2,    6607.67, -123.3,   0.82933, 3,    6607.67,  116.7,   0.82934
"SCN_CN15_9011_CEI134_ATV", 13.8, 1,    6619.85,   -3.2,   0.83086, 2,    6619.83, -123.2,   0.83086, 3,    6619.84,  116.8,   0.83086
"SCN_CN15_9009_CEI134A_ATV", 13.8, 1,     6619.3,   -3.2,   0.83079, 2,    6619.29, -123.2,   0.83079, 3,    6619.29,  116.8,   0.83079
"SCN_CN15_9002_CEI134_ATV", 13.8, 1,    6621.18,   -3.2,   0.83103, 2,    6621.16, -123.2,   0.83103, 3,    6621.17,  116.8,   0.83103
"SCN_CN15_9003_CEI134_ATV", 13.8, 1,    6621.19,   -3.2,   0.83103, 2,    6621.18, -123.2,   0.83103, 3,    6621.19,  116.8,   0.83103
"SCN_CN15_9101_CEI109", 13.8, 1,    6623.09,   -3.2,   0.83127, 2,    6623.08, -123.2,   0.83127, 3,    6623.09,  116.8,   0.83127
"SCN_CN15_9102_CEI109", 13.8, 1,    6623.07,   -3.2,   0.83127, 2,    6623.05, -123.2,   0.83127, 3,    6623.06,  116.8,   0.83127
"SCN_CN15_9103_CEI109", 13.8, 1,    6623.04,   -3.2,   0.83126, 2,    6623.03, -123.2,   0.83126, 3,    6623.04,  116.8,   0.83126
"SCN_CN15_9104_CEI109", 13.8, 1,    6623.02,   -3.2,   0.83126, 2,    6623.01, -123.2,   0.83126, 3,    6623.02,  116.8,   0.83126
"SCN_CN15_9105_CEI109", 13.8, 1,       6623,   -3.2,   0.83126, 2,    6622.99, -123.2,   0.83126, 3,       6623,  116.8,   0.83126
"SCN_CN15_9106_CEI109", 13.8, 1,    6622.98,   -3.2,   0.83126, 2,    6622.97, -123.2,   0.83126, 3,    6622.98,  116.8,   0.83126
"SCN_CN15_9108_CEI109", 13.8, 1,    6622.96,   -3.2,   0.83125, 2,    6622.95, -123.2,   0.83125, 3,    6622.95,  116.8,   0.83125
"SCN_CN15_9109_CEI109", 13.8, 1,    6622.94,   -3.2,   0.83125, 2,    6622.93, -123.2,   0.83125, 3,    6622.93,  116.8,   0.83125
"SCN_CN15_9110_CEI109", 13.8, 1,    6622.92,   -3.2,   0.83125, 2,     6622.9, -123.2,   0.83125, 3,    6622.91,  116.8,   0.83125
"SCN_CN15_9111_CEI109", 13.8, 1,     6622.9,   -3.2,   0.83125, 2,    6622.88, -123.2,   0.83124, 3,    6622.89,  116.8,   0.83124
"SCN_CN15_9112_CEI109", 13.8, 1,    6622.89,   -3.2,   0.83124, 2,    6622.87, -123.2,   0.83124, 3,    6622.88,  116.8,   0.83124
"SCN_CN15_9113_CEI109", 13.8, 1,    6622.87,   -3.2,   0.83124, 2,    6622.86, -123.2,   0.83124, 3,    6622.86,  116.8,   0.83124
"SCN_CN15_9114_CEI109", 13.8, 1,    6622.85,   -3.2,   0.83124, 2,    6622.84, -123.2,   0.83124, 3,    6622.84,  116.8,   0.83124
"SCN_CN15_9115_CEI109", 13.8, 1,    6622.81,   -3.2,   0.83124, 2,     6622.8, -123.2,   0.83123, 3,    6622.81,  116.8,   0.83123
"SCN_CN15_9116_CEI109", 13.8, 1,    6622.79,   -3.2,   0.83123, 2,    6622.78, -123.2,   0.83123, 3,    6622.79,  116.8,   0.83123
"SCN_CN15_9010_CEI120", 13.8, 1,    6661.36,   -3.1,   0.83607, 2,    6661.35, -123.1,   0.83607, 3,    6661.36,  116.9,   0.83607
"SCN_CN15_9011_CEI120", 13.8, 1,    6662.69,   -3.1,   0.83624, 2,    6662.67, -123.1,   0.83624, 3,    6662.68,  116.9,   0.83624
"SCN_CN15_9045_CEI130_ATV", 13.8, 1,    6709.86,   -3.0,   0.84216, 2,    6709.85, -123.0,   0.84216, 3,    6709.85,  117.0,   0.84216
"SCN_CN15_9044_CEI130_ATV", 13.8, 1,    6709.85,   -3.0,   0.84216, 2,    6709.84, -123.0,   0.84216, 3,    6709.85,  117.0,   0.84216
"SCN_CN15_9043_CEI130_ATV", 13.8, 1,    6709.81,   -3.0,   0.84215, 2,    6709.79, -123.0,   0.84215, 3,     6709.8,  117.0,   0.84215
"SCN_CN15_9014_CEI69B", 13.8, 1,    6794.07,   -2.7,   0.85273, 2,    6794.06, -122.7,   0.85273, 3,    6794.07,  117.3,   0.85273
"SCN_CN15_9015_CEI69B", 13.8, 1,    6794.57,   -2.7,   0.85279, 2,    6794.56, -122.7,   0.85279, 3,    6794.56,  117.3,   0.85279
"SCN_CN15_9559_CEI109", 13.8, 1,    6616.62,   -3.3,   0.83046, 2,    6616.61, -123.3,   0.83046, 3,    6616.62,  116.7,   0.83046
"SCN_CN15_9570_CEI109", 13.8, 1,    6616.62,   -3.3,   0.83046, 2,     6616.6, -123.3,   0.83046, 3,    6616.61,  116.7,   0.83046
"SCN_CN15_9558_CEI109", 13.8, 1,    6620.24,   -3.3,   0.83091, 2,    6620.23, -123.3,   0.83091, 3,    6620.23,  116.7,   0.83091
"SCN_CN15_9560_CEI109", 13.8, 1,    6613.95,   -3.3,   0.83012, 2,    6613.94, -123.3,   0.83012, 3,    6613.95,  116.7,   0.83012
"SCN_CN15_9555_CEI109", 13.8, 1,     6624.4,   -3.3,   0.83144, 2,    6624.39, -123.3,   0.83143, 3,     6624.4,  116.7,   0.83143
"SCN_CN15_9552_CEI109", 13.8, 1,    6627.47,   -3.2,   0.83182, 2,    6627.46, -123.2,   0.83182, 3,    6627.46,  116.8,   0.83182
"SCN_CN15_9550_CEI109", 13.8, 1,    6630.15,   -3.2,   0.83216, 2,    6630.14, -123.2,   0.83215, 3,    6630.14,  116.8,   0.83216
"SCN_CN15_9548_CEI109", 13.8, 1,    6632.72,   -3.2,   0.83248, 2,    6632.71, -123.2,   0.83248, 3,    6632.71,  116.8,   0.83248
"SCN_CN15_9017_CEI109", 13.8, 1,    6636.22,   -3.2,   0.83292, 2,    6636.21, -123.2,   0.83292, 3,    6636.21,  116.8,   0.83292
"SCN_CN15_9548_CEI109_S", 13.8, 1,    6632.72,   -3.2,   0.83248, 2,    6632.71, -123.2,   0.83248, 3,    6632.71,  116.8,   0.83248
"SCN_CN15_9016_CEI109", 13.8, 1,    6636.15,   -3.2,   0.83291, 2,    6636.13, -123.2,   0.83291, 3,    6636.14,  116.8,   0.83291
"SCN_CN15_9014_CEI109", 13.8, 1,    6636.04,   -3.2,    0.8329, 2,    6636.03, -123.2,   0.83289, 3,    6636.03,  116.8,   0.83289
"SCN_CN15_9013_CEI109", 13.8, 1,    6635.99,   -3.2,   0.83289, 2,    6635.98, -123.2,   0.83289, 3,    6635.99,  116.8,   0.83289
"SCN_CN15_9012_CEI109", 13.8, 1,    6635.92,   -3.2,   0.83288, 2,    6635.91, -123.2,   0.83288, 3,    6635.91,  116.8,   0.83288
"SCN_CN15_9008_CEI109", 13.8, 1,    6635.86,   -3.2,   0.83287, 2,    6635.85, -123.2,   0.83287, 3,    6635.86,  116.8,   0.83287
"SCN_CN15_9009_CEI109", 13.8, 1,    6635.83,   -3.2,   0.83287, 2,    6635.82, -123.2,   0.83287, 3,    6635.83,  116.8,   0.83287
"SCN_CN15_9010_CEI109", 13.8, 1,    6635.81,   -3.2,   0.83287, 2,     6635.8, -123.2,   0.83286, 3,     6635.8,  116.8,   0.83287
"SCN_CN15_9011_CEI109", 13.8, 1,    6635.78,   -3.2,   0.83286, 2,    6635.77, -123.2,   0.83286, 3,    6635.78,  116.8,   0.83286
"SCN_CN15_9547_CEI109", 13.8, 1,    6632.67,   -3.2,   0.83247, 2,    6632.66, -123.2,   0.83247, 3,    6632.67,  116.8,   0.83247
"SCN_CN15_9007_CEI109", 13.8, 1,    6635.84,   -3.2,   0.83287, 2,    6635.83, -123.2,   0.83287, 3,    6635.83,  116.8,   0.83287
"SCN_CN15_9006_CEI109", 13.8, 1,    6635.83,   -3.2,   0.83287, 2,    6635.81, -123.2,   0.83287, 3,    6635.82,  116.8,   0.83287
"SCN_CN15_9005_CEI109", 13.8, 1,    6635.81,   -3.2,   0.83287, 2,    6635.79, -123.2,   0.83286, 3,     6635.8,  116.8,   0.83287
"SCN_CN15_9004_CEI109", 13.8, 1,    6635.79,   -3.2,   0.83286, 2,    6635.78, -123.2,   0.83286, 3,    6635.79,  116.8,   0.83286
"SCN_CN15_9002_CEI109", 13.8, 1,    6721.77,   -2.8,   0.84366, 2,    6721.75, -122.8,   0.84365, 3,    6721.76,  117.2,   0.84365
"SCN_CN15_9003_CEI109", 13.8, 1,    6721.77,   -2.8,   0.84366, 2,    6721.75, -122.8,   0.84365, 3,    6721.76,  117.2,   0.84365
"SCN_CN15_9001_CEI109", 13.8, 1,    6721.77,   -2.8,   0.84366, 2,    6721.75, -122.8,   0.84365, 3,    6721.76,  117.2,   0.84365
"SCN_CN15_9122_CEI201_ATV", 13.8, 1,    6721.77,   -2.8,   0.84366, 2,    6721.75, -122.8,   0.84365, 3,    6721.76,  117.2,   0.84365
"SCN_CN15_9241_CEI109", 13.8, 1,    6582.62,   -3.4,   0.82619, 2,    6582.61, -123.4,   0.82619, 3,    6582.61,  116.6,   0.82619
"SCN_CN15_9204_CEI109", 13.8, 1,    6582.63,   -3.4,   0.82619, 2,    6582.61, -123.4,   0.82619, 3,    6582.62,  116.6,   0.82619
"SCN_CN15_9242_CEI109", 13.8, 1,    6582.61,   -3.4,   0.82619, 2,     6582.6, -123.4,   0.82619, 3,    6582.61,  116.6,   0.82619
"SCN_CN15_9243_CEI109", 13.8, 1,    6582.61,   -3.4,   0.82619, 2,    6582.59, -123.4,   0.82619, 3,     6582.6,  116.6,   0.82619
"SCN_CN15_9244_CEI109", 13.8, 1,     6582.6,   -3.4,   0.82619, 2,    6582.58, -123.4,   0.82619, 3,    6582.59,  116.6,   0.82619
"SCN_CN15_9245_CEI109", 13.8, 1,    6582.59,   -3.4,   0.82619, 2,    6582.57, -123.4,   0.82618, 3,    6582.58,  116.6,   0.82619
"SCN_CN15_9190_CEI109", 13.8, 1,    6581.86,   -3.4,    0.8261, 2,    6581.84, -123.4,   0.82609, 3,    6581.85,  116.6,   0.82609
"SCN_CN15_9191_CEI109", 13.8, 1,    6581.84,   -3.4,   0.82609, 2,    6581.83, -123.4,   0.82609, 3,    6581.84,  116.6,   0.82609
"SCN_CN15_9166_CEI109", 13.8, 1,    6581.82,   -3.4,   0.82609, 2,    6581.81, -123.4,   0.82609, 3,    6581.81,  116.6,   0.82609
"SCN_CN15_9167_CEI109", 13.8, 1,    6581.82,   -3.4,   0.82609, 2,     6581.8, -123.4,   0.82609, 3,    6581.81,  116.6,   0.82609
"SCN_CN15_9168_CEI109", 13.8, 1,    6581.81,   -3.4,   0.82609, 2,     6581.8, -123.4,   0.82609, 3,     6581.8,  116.6,   0.82609
"SCN_CN15_9169_CEI109", 13.8, 1,    6581.81,   -3.4,   0.82609, 2,    6581.79, -123.4,   0.82609, 3,     6581.8,  116.6,   0.82609
"SCN_CN15_9183_CEI109", 13.8, 1,     6581.8,   -3.4,   0.82609, 2,    6581.78, -123.4,   0.82609, 3,    6581.79,  116.6,   0.82609
"SCN_CN15_9330_CEI109", 13.8, 1,    6563.51,   -3.5,   0.82379, 2,     6563.5, -123.5,   0.82379, 3,     6563.5,  116.5,   0.82379
"SCN_CN15_9329_CEI109", 13.8, 1,    6563.86,   -3.5,   0.82384, 2,    6563.85, -123.5,   0.82383, 3,    6563.86,  116.5,   0.82384
"SCN_CN15_9328_CEI109", 13.8, 1,    6564.11,   -3.5,   0.82387, 2,    6564.09, -123.5,   0.82387, 3,     6564.1,  116.5,   0.82387
"SCN_CN15_9165_CEI068", 13.8, 1,    6841.49,   -2.5,   0.85868, 2,    6841.48, -122.5,   0.85868, 3,    6841.48,  117.5,   0.85868
"SCN_CN15_9166_CEI068", 13.8, 1,    6841.45,   -2.5,   0.85868, 2,    6841.44, -122.5,   0.85868, 3,    6841.45,  117.4,   0.85868
"SCN_CN15_9327_CEI109", 13.8, 1,    6564.53,   -3.5,   0.82392, 2,    6564.52, -123.5,   0.82392, 3,    6564.52,  116.5,   0.82392
"SCN_CN15_9399_CEI109", 13.8, 1,    6564.93,   -3.5,   0.82397, 2,    6564.92, -123.5,   0.82397, 3,    6564.92,  116.5,   0.82397
"SCN_CN15_9029_CEI160_ATV", 13.8, 1,     6564.9,   -3.5,   0.82397, 2,    6564.89, -123.5,   0.82397, 3,     6564.9,  116.5,   0.82397
"SCN_CN15_9057_CEI075", 13.8, 1,    6654.53,   -2.9,   0.83522, 2,    6654.52, -122.9,   0.83521, 3,    6654.52,  117.1,   0.83522
"SCN_CN15_9054_CEIRJ006_ATV", 13.8, 1,    6654.53,   -2.9,   0.83522, 2,    6654.51, -122.9,   0.83521, 3,    6654.52,  117.1,   0.83521
"SCN_CN15_9040_CEI77A_ATV", 13.8, 1,    7424.47,   -1.4,   0.93185, 2,    7424.46, -121.4,   0.93185, 3,    7424.47,  118.6,   0.93185
"SCN_CN15_9042_CEI77A_ATV", 13.8, 1,    7424.45,   -1.4,   0.93185, 2,    7424.44, -121.4,   0.93185, 3,    7424.44,  118.6,   0.93185
"SCN_CN15_9043_CEI77A_ATV", 13.8, 1,    7424.43,   -1.4,   0.93185, 2,    7424.42, -121.4,   0.93185, 3,    7424.42,  118.6,   0.93185
"SCN_CN15_9190_CEI77A_ATV", 13.8, 1,    7877.55,   -0.4,   0.98872, 2,    7877.55, -120.4,   0.98872, 3,    7877.55,  119.6,   0.98872
"SCN_CN15_9194_CEI77A_ATV", 13.8, 1,    7886.38,   -0.4,   0.98983, 2,    7886.38, -120.4,   0.98983, 3,    7886.38,  119.6,   0.98983
"SCN_CN15_9195_CEI77A_ATV", 13.8, 1,    7901.39,   -0.3,   0.99171, 2,    7901.38, -120.3,   0.99171, 3,    7901.38,  119.7,   0.99171
"SCN_CN15_9196_CEI77A_ATV", 13.8, 1,     7916.3,   -0.3,   0.99358, 2,     7916.3, -120.3,   0.99358, 3,     7916.3,  119.7,   0.99358
"SCN_CN15_9197_CEI77A_ATV", 13.8, 1,    7932.47,   -0.2,   0.99561, 2,    7932.47, -120.2,   0.99561, 3,    7932.47,  119.8,   0.99561
"SCN_CN15_9198_CEI77A_ATV", 13.8, 1,    7937.46,   -0.2,   0.99624, 2,    7937.46, -120.2,   0.99624, 3,    7937.46,  119.8,   0.99624
"SCN_CN15_9200_CEI77A_ATV", 13.8, 1,    7731.57,   -0.8,    0.9704, 2,    7731.57, -120.8,    0.9704, 3,    7731.57,  119.2,    0.9704
"SCN_CN15_9201_CEI77A_ATV", 13.8, 1,    7731.59,   -0.8,    0.9704, 2,    7731.59, -120.8,    0.9704, 3,    7731.59,  119.2,    0.9704
"SCN_CN15_9039_CEI076", 13.8, 1,    6928.32,   -2.4,   0.86958, 2,    6928.31, -122.4,   0.86958, 3,    6928.32,  117.6,   0.86958
"SCN_CN15_9041_CEI076", 13.8, 1,    6928.32,   -2.4,   0.86958, 2,    6928.31, -122.4,   0.86958, 3,    6928.32,  117.6,   0.86958
"SCN_CN15_9042_CEI076", 13.8, 1,    6928.32,   -2.4,   0.86958, 2,    6928.31, -122.4,   0.86958, 3,    6928.32,  117.6,   0.86958
"SCN_CN15_9044_CEI076", 13.8, 1,    6928.32,   -2.4,   0.86958, 2,    6928.31, -122.4,   0.86958, 3,    6928.32,  117.6,   0.86958
"SCN_CN15_9045_CEI076", 13.8, 1,    6928.32,   -2.4,   0.86958, 2,    6928.31, -122.4,   0.86958, 3,    6928.32,  117.6,   0.86958
"SCN_CN15_9057_CEI068", 13.8, 1,     6924.2,   -2.4,   0.86906, 2,    6924.19, -122.4,   0.86906, 3,    6924.19,  117.6,   0.86906
"SCN_CN15_9058_CEI068", 13.8, 1,     6924.2,   -2.4,   0.86906, 2,    6924.19, -122.4,   0.86906, 3,    6924.19,  117.6,   0.86906
"SCN_CN15_9236_CEI068", 13.8, 1,    6924.19,   -2.4,   0.86906, 2,    6924.18, -122.4,   0.86906, 3,    6924.19,  117.6,   0.86906
"SCN_CN15_9240_CEI068", 13.8, 1,    6924.19,   -2.4,   0.86906, 2,    6924.18, -122.4,   0.86906, 3,    6924.18,  117.6,   0.86906
"SCN_CN15_9063_CEI072", 13.8, 1,    7283.24,   -1.7,   0.91413, 2,    7283.23, -121.7,   0.91413, 3,    7283.24,  118.3,   0.91413
"SCN_CN15_CEI_FL_MT_37442", 13.8, 1,    7283.32,   -1.7,   0.91414, 2,    7283.32, -121.7,   0.91414, 3,    7283.32,  118.3,   0.91414
"SCN_CN15_9088_CEI072", 13.8, 1,    7283.32,   -1.7,   0.91414, 2,    7283.32, -121.7,   0.91414, 3,    7283.32,  118.3,   0.91414
"SCN_CN15_9089_CEI072", 13.8, 1,    7286.21,   -1.7,    0.9145, 2,     7286.2, -121.7,    0.9145, 3,     7286.2,  118.3,    0.9145
"SCN_CN15_9062_CEI072", 13.8, 1,    7279.68,   -1.7,   0.91368, 2,    7279.68, -121.7,   0.91368, 3,    7279.68,  118.3,   0.91368
"SCN_CN15_9061_CEI071", 13.8, 1,    7143.48,   -2.0,   0.89658, 2,    7143.47, -122.0,   0.89658, 3,    7143.48,  118.0,   0.89658
"SCN_CN15_9072_CEI071", 13.8, 1,    7143.45,   -2.0,   0.89658, 2,    7143.44, -122.0,   0.89658, 3,    7143.45,  118.0,   0.89658
"SCN_CN15_9073_CEI071", 13.8, 1,    7143.43,   -2.0,   0.89658, 2,    7143.42, -122.0,   0.89658, 3,    7143.42,  118.0,   0.89658
"SCN_CN15_9075_CEI071", 13.8, 1,     7143.4,   -2.0,   0.89657, 2,    7143.39, -122.0,   0.89657, 3,     7143.4,  118.0,   0.89657
"SCN_CN15_9078_CEI071", 13.8, 1,    7143.38,   -2.0,   0.89657, 2,    7143.37, -122.0,   0.89657, 3,    7143.37,  118.0,   0.89657
"SCN_CN15_9079_CEI071", 13.8, 1,    7143.35,   -2.0,   0.89657, 2,    7143.34, -122.0,   0.89657, 3,    7143.35,  118.0,   0.89657
"SCN_CN15_9080_CEI071", 13.8, 1,    7143.33,   -2.0,   0.89657, 2,    7143.32, -122.0,   0.89657, 3,    7143.33,  118.0,   0.89657
"SCN_CN15_9081_CEI071", 13.8, 1,    7143.31,   -2.0,   0.89656, 2,     7143.3, -122.0,   0.89656, 3,     7143.3,  118.0,   0.89656
"SCN_CN15_9082_CEI071", 13.8, 1,    7143.28,   -2.0,   0.89656, 2,    7143.27, -122.0,   0.89656, 3,    7143.28,  118.0,   0.89656
"SCN_CN15_9083_CEI071", 13.8, 1,    7143.26,   -2.0,   0.89656, 2,    7143.25, -122.0,   0.89656, 3,    7143.25,  118.0,   0.89656
"SCN_CN15_9084_CEI071", 13.8, 1,    7143.23,   -2.0,   0.89655, 2,    7143.22, -122.0,   0.89655, 3,    7143.23,  118.0,   0.89655
"SCN_CN15_9145_CEI220_ATV", 13.8, 1,    6657.06,   -3.1,   0.83553, 2,    6657.05, -123.1,   0.83553, 3,    6657.05,  116.9,   0.83553
"SCN_CN15_9146_CEI220_ATV", 13.8, 1,       6657,   -3.1,   0.83553, 2,    6656.98, -123.1,   0.83552, 3,    6656.99,  116.9,   0.83552
"SCN_CN15_9004_CEI220_ATV", 13.8, 1,    6721.64,   -2.8,   0.84364, 2,    6721.63, -122.8,   0.84364, 3,    6721.63,  117.2,   0.84364
"SCN_CN15_9005_CEI220_ATV", 13.8, 1,    6721.64,   -2.8,   0.84364, 2,    6721.62, -122.8,   0.84364, 3,    6721.63,  117.2,   0.84364
"SCN_CN15_9088_CEI201_ATV", 13.8, 1,    6716.06,   -2.9,   0.84294, 2,    6716.05, -122.9,   0.84294, 3,    6716.06,  117.1,   0.84294
"SCN_CN15_9089_CEI201_ATV", 13.8, 1,    6716.08,   -2.9,   0.84294, 2,    6716.06, -122.9,   0.84294, 3,    6716.07,  117.1,   0.84294
"SCN_CN15_9016_CEIRJ003", 13.8, 1,     6716.5,   -2.9,   0.84299, 2,    6716.49, -122.9,   0.84299, 3,    6716.49,  117.1,   0.84299
"SCN_CN15_9089_CEI201_ATV_S", 13.8, 1,    6716.08,   -2.9,   0.84294, 2,    6716.06, -122.9,   0.84294, 3,    6716.07,  117.1,   0.84294
"SCN_CN15_9123_CEI69B", 13.8, 1,    6715.43,   -2.9,   0.84286, 2,    6715.42, -122.9,   0.84286, 3,    6715.42,  117.1,   0.84286
"SCN_CN15_9121_CEI69B", 13.8, 1,    6714.02,   -2.9,   0.84268, 2,    6714.01, -122.9,   0.84268, 3,    6714.02,  117.1,   0.84268
"SCN_CN15_9119_CEI69B", 13.8, 1,     6712.3,   -2.9,   0.84247, 2,    6712.29, -122.9,   0.84247, 3,     6712.3,  117.1,   0.84247
"SCN_CN15_9276_CEI109", 13.8, 1,    6608.28,   -3.3,   0.82941, 2,    6608.27, -123.3,   0.82941, 3,    6608.28,  116.7,   0.82941
"SCN_CN15_9277_CEI109", 13.8, 1,    6606.88,   -3.3,   0.82924, 2,    6606.87, -123.3,   0.82923, 3,    6606.88,  116.7,   0.82924
"SCN_CN15_9118_CEI69B", 13.8, 1,    6710.69,   -2.9,   0.84226, 2,    6710.67, -122.9,   0.84226, 3,    6710.68,  117.1,   0.84226
"SCN_CN15_9114_CEI230_ATV", 13.8, 1,    6706.63,   -2.9,   0.84176, 2,    6706.62, -122.9,   0.84175, 3,    6706.63,  117.1,   0.84175
"SCN_CN15_9113_CEI230_ATV", 13.8, 1,    6703.68,   -2.9,   0.84139, 2,    6703.67, -122.9,   0.84138, 3,    6703.67,  117.1,   0.84138
"SCN_CN15_9112_CEI230_ATV", 13.8, 1,    6698.13,   -2.9,   0.84069, 2,    6698.11, -122.9,   0.84069, 3,    6698.12,  117.1,   0.84069
"SCN_CN15_9111_CEI230_ATV_S", 13.8, 1,    6697.67,   -2.9,   0.84063, 2,    6697.65, -122.9,   0.84063, 3,    6697.66,  117.1,   0.84063
"SCN_CN15_9110_CEI230_ATV", 13.8, 1,    6697.65,   -2.9,   0.84063, 2,    6697.64, -122.9,   0.84063, 3,    6697.64,  117.1,   0.84063
"SCN_CN15_9111_CEI230_ATV", 13.8, 1,    6697.67,   -2.9,   0.84063, 2,    6697.65, -122.9,   0.84063, 3,    6697.66,  117.1,   0.84063
"SCN_CN15_9109_CEI230_ATV", 13.8, 1,    6697.63,   -2.9,   0.84063, 2,    6697.62, -122.9,   0.84062, 3,    6697.62,  117.1,   0.84062
"SCN_CN15_9108_CEI230_ATV", 13.8, 1,    6697.62,   -2.9,   0.84062, 2,     6697.6, -122.9,   0.84062, 3,    6697.61,  117.1,   0.84062
"SCN_CN15_9107_CEI230_ATV", 13.8, 1,    6697.61,   -2.9,   0.84062, 2,    6697.59, -122.9,   0.84062, 3,     6697.6,  117.1,   0.84062
"SCN_CN15_9106_CEI230_ATV", 13.8, 1,     6697.6,   -2.9,   0.84062, 2,    6697.58, -122.9,   0.84062, 3,    6697.59,  117.1,   0.84062
"SCN_CN15_9278_CEI109", 13.8, 1,    6605.64,   -3.3,   0.82908, 2,    6605.63, -123.3,   0.82908, 3,    6605.63,  116.7,   0.82908
"SCN_CN15_9104_CEI230_ATV", 13.8, 1,    6697.59,   -2.9,   0.84062, 2,    6697.58, -122.9,   0.84062, 3,    6697.58,  117.1,   0.84062
"SCN_CN15_9105_CEI230_ATV", 13.8, 1,    6697.58,   -2.9,   0.84062, 2,    6697.57, -122.9,   0.84062, 3,    6697.57,  117.1,   0.84062
"SCN_CN15_9103_CEI230_ATV", 13.8, 1,    6697.57,   -2.9,   0.84062, 2,    6697.56, -122.9,   0.84062, 3,    6697.56,  117.1,   0.84062
"SCN_CN15_9102_CEI230_ATV", 13.8, 1,    6697.56,   -2.9,   0.84062, 2,    6697.55, -122.9,   0.84062, 3,    6697.55,  117.1,   0.84062
"SCN_CN15_9100_CEI230_ATV", 13.8, 1,    6697.55,   -2.9,   0.84062, 2,    6697.54, -122.9,   0.84061, 3,    6697.54,  117.1,   0.84061
"SCN_CN15_9099_CEI230_ATV", 13.8, 1,    6697.54,   -2.9,   0.84061, 2,    6697.53, -122.9,   0.84061, 3,    6697.54,  117.1,   0.84061
"SCN_CN15_9098_CEI230_ATV", 13.8, 1,    6697.54,   -2.9,   0.84061, 2,    6697.52, -122.9,   0.84061, 3,    6697.53,  117.1,   0.84061
"SCN_CN15_9097_CEI230_ATV", 13.8, 1,    6697.53,   -2.9,   0.84061, 2,    6697.51, -122.9,   0.84061, 3,    6697.52,  117.1,   0.84061
"SCN_CN15_9096_CEI230_ATV", 13.8, 1,    6697.52,   -2.9,   0.84061, 2,    6697.51, -122.9,   0.84061, 3,    6697.51,  117.1,   0.84061
"SCN_CN15_9094_CEI230_ATV", 13.8, 1,    6697.51,   -2.9,   0.84061, 2,     6697.5, -122.9,   0.84061, 3,    6697.51,  117.1,   0.84061
"SCN_CN15_9281_CEI109", 13.8, 1,    6604.72,   -3.3,   0.82896, 2,    6604.71, -123.3,   0.82896, 3,    6604.72,  116.7,   0.82896
"SCN_CN15_9095_CEI230_ATV", 13.8, 1,    6697.51,   -2.9,   0.84061, 2,     6697.5, -122.9,   0.84061, 3,     6697.5,  117.1,   0.84061
"SCN_CN15_9120_CEI230_ATV", 13.8, 1,    6691.93,   -2.9,   0.83991, 2,    6691.92, -122.9,   0.83991, 3,    6691.92,  117.1,   0.83991
"SCN_CN15_9115_CEI230_ATV", 13.8, 1,    6691.84,   -2.9,    0.8399, 2,    6691.83, -122.9,    0.8399, 3,    6691.83,  117.1,    0.8399
"SCN_CN15_9119_CEI230_ATV", 13.8, 1,    6686.35,   -2.9,   0.83921, 2,    6686.34, -122.9,   0.83921, 3,    6686.34,  117.1,   0.83921
"SCN_CN15_9331_CEI109", 13.8, 1,    6563.11,   -3.5,   0.82374, 2,    6563.09, -123.5,   0.82374, 3,     6563.1,  116.5,   0.82374
"SCN_CN15_9332_CEI109", 13.8, 1,    6562.88,   -3.5,   0.82371, 2,    6562.86, -123.5,   0.82371, 3,    6562.87,  116.5,   0.82371
"SCN_CN15_9118_CEI230_ATV", 13.8, 1,    6680.85,   -2.9,   0.83852, 2,    6680.84, -122.9,   0.83852, 3,    6680.85,  117.1,   0.83852
"SCN_CN15_9117_CEI230_ATV", 13.8, 1,    6675.15,   -2.9,    0.8378, 2,    6675.13, -122.9,    0.8378, 3,    6675.14,  117.1,    0.8378
"SCN_CN15_9116_CEI230_ATV", 13.8, 1,    6669.73,   -2.9,   0.83712, 2,    6669.72, -122.9,   0.83712, 3,    6669.72,  117.1,   0.83712
"SCN_CN15_9014_CEIRJ003", 13.8, 1,    6664.54,   -2.9,   0.83647, 2,    6664.52, -122.9,   0.83647, 3,    6664.53,  117.1,   0.83647
"SCN_CN15_9002_CEI075", 13.8, 1,    6663.89,   -2.9,   0.83639, 2,    6663.88, -122.9,   0.83639, 3,    6663.88,  117.1,   0.83639
"SCN_CN15_9003_CEI075", 13.8, 1,     6663.2,   -2.9,    0.8363, 2,    6663.19, -122.9,    0.8363, 3,    6663.19,  117.1,    0.8363
"SCN_CN15_9282_CEI109", 13.8, 1,    6603.85,   -3.3,   0.82886, 2,    6603.84, -123.3,   0.82885, 3,    6603.85,  116.7,   0.82885
"SCN_CN15_9004_CEI075", 13.8, 1,    6662.44,   -2.9,   0.83621, 2,    6662.42, -122.9,   0.83621, 3,    6662.43,  117.1,   0.83621
"SCN_CN15_9052_CEIRJ006_ATV", 13.8, 1,    6663.19,   -2.9,    0.8363, 2,    6663.17, -122.9,    0.8363, 3,    6663.18,  117.1,    0.8363
"SCN_CN15_9005_CEI075", 13.8, 1,    6661.64,   -2.9,   0.83611, 2,    6661.62, -122.9,   0.83611, 3,    6661.63,  117.1,   0.83611
"SCN_CN15_9006_CEI075", 13.8, 1,    6660.68,   -2.9,   0.83599, 2,    6660.67, -122.9,   0.83599, 3,    6660.67,  117.1,   0.83599
"SCN_CN15_9007_CEI075", 13.8, 1,    6659.95,   -2.9,    0.8359, 2,    6659.94, -122.9,   0.83589, 3,    6659.94,  117.1,    0.8359
"SCN_CN15_9008_CEI075", 13.8, 1,    6659.04,   -2.9,   0.83578, 2,    6659.03, -122.9,   0.83578, 3,    6659.03,  117.1,   0.83578
"SCN_CN15_9009_CEI075", 13.8, 1,    6658.14,   -2.9,   0.83567, 2,    6658.13, -122.9,   0.83567, 3,    6658.13,  117.1,   0.83567
"SCN_CN15_9169_CEI230_ATV", 13.8, 1,    6658.13,   -2.9,   0.83567, 2,    6658.12, -122.9,   0.83567, 3,    6658.12,  117.1,   0.83567
"SCN_CN15_9010_CEI075", 13.8, 1,    6658.01,   -2.9,   0.83565, 2,    6657.99, -122.9,   0.83565, 3,       6658,  117.1,   0.83565
"SCN_CN15_9011_CEI075", 13.8, 1,    6657.86,   -2.9,   0.83563, 2,    6657.85, -122.9,   0.83563, 3,    6657.85,  117.1,   0.83563
"SCN_CN15_9012_CEI075", 13.8, 1,    6657.72,   -2.9,   0.83562, 2,    6657.71, -122.9,   0.83562, 3,    6657.71,  117.1,   0.83562
"SCN_CN15_9283_CEI109", 13.8, 1,    6602.54,   -3.3,   0.82869, 2,    6602.52, -123.3,   0.82869, 3,    6602.53,  116.7,   0.82869
"SCN_CN15_9013_CEI075", 13.8, 1,    6657.52,   -2.9,   0.83559, 2,    6657.51, -122.9,   0.83559, 3,    6657.52,  117.1,   0.83559
"SCN_CN15_9014_CEI075", 13.8, 1,    6657.34,   -2.9,   0.83557, 2,    6657.32, -122.9,   0.83557, 3,    6657.33,  117.1,   0.83557
"SCN_CN15_9015_CEI075", 13.8, 1,    6657.15,   -2.9,   0.83555, 2,    6657.14, -122.9,   0.83554, 3,    6657.14,  117.1,   0.83554
"SCN_CN15_9016_CEI075", 13.8, 1,    6656.96,   -2.9,   0.83552, 2,    6656.95, -122.9,   0.83552, 3,    6656.95,  117.1,   0.83552
"SCN_CN15_9017_CEI075", 13.8, 1,    6656.78,   -2.9,    0.8355, 2,    6656.77, -122.9,    0.8355, 3,    6656.77,  117.1,    0.8355
"SCN_CN15_9018_CEI075", 13.8, 1,    6656.59,   -2.9,   0.83547, 2,    6656.58, -122.9,   0.83547, 3,    6656.58,  117.1,   0.83547
"SCN_CN15_9019_CEI075", 13.8, 1,    6656.49,   -2.9,   0.83546, 2,    6656.48, -122.9,   0.83546, 3,    6656.48,  117.1,   0.83546
"SCN_CN15_9020_CEI075", 13.8, 1,     6656.4,   -2.9,   0.83545, 2,    6656.38, -122.9,   0.83545, 3,    6656.39,  117.1,   0.83545
"SCN_CN15_9022_CEI075", 13.8, 1,    6656.23,   -2.9,   0.83543, 2,    6656.21, -122.9,   0.83543, 3,    6656.22,  117.1,   0.83543
"SCN_CN15_9023_CEI075", 13.8, 1,    6656.08,   -2.9,   0.83541, 2,    6656.06, -122.9,   0.83541, 3,    6656.07,  117.1,   0.83541
"SCN_CN15_9284_CEI109", 13.8, 1,    6601.51,   -3.3,   0.82856, 2,    6601.49, -123.3,   0.82856, 3,     6601.5,  116.7,   0.82856
"SCN_CN15_9024_CEI075", 13.8, 1,    6655.89,   -2.9,   0.83539, 2,    6655.88, -122.9,   0.83539, 3,    6655.88,  117.1,   0.83539
"SCN_CN15_9025_CEI075", 13.8, 1,    6655.73,   -2.9,   0.83537, 2,    6655.71, -122.9,   0.83536, 3,    6655.72,  117.1,   0.83537
"SCN_CN15_9072_CEI230_ATV", 13.8, 1,    6655.71,   -2.9,   0.83536, 2,     6655.7, -122.9,   0.83536, 3,     6655.7,  117.1,   0.83536
"SCN_CN15_9028_CEI075", 13.8, 1,    6655.34,   -2.9,   0.83532, 2,    6655.32, -122.9,   0.83532, 3,    6655.33,  117.1,   0.83532
"SCN_CN15_9029_CEI075", 13.8, 1,    6655.25,   -2.9,   0.83531, 2,    6655.24, -122.9,   0.83531, 3,    6655.24,  117.1,   0.83531
"SCN_CN15_9027_CEI075", 13.8, 1,    6655.43,   -2.9,   0.83533, 2,    6655.41, -122.9,   0.83533, 3,    6655.42,  117.1,   0.83533
"SCN_CN15_9026_CEI075", 13.8, 1,    6655.57,   -2.9,   0.83535, 2,    6655.56, -122.9,   0.83535, 3,    6655.56,  117.1,   0.83535
"SCN_CN15_9030_CEI075", 13.8, 1,    6655.22,   -2.9,    0.8353, 2,     6655.2, -122.9,    0.8353, 3,    6655.21,  117.1,    0.8353
"SCN_CN15_9074_CEI230_ATV", 13.8, 1,     6655.1,   -2.9,   0.83529, 2,    6655.09, -122.9,   0.83529, 3,    6655.09,  117.1,   0.83529
"SCN_CN15_9075_CEI230_ATV", 13.8, 1,    6655.04,   -2.9,   0.83528, 2,    6655.02, -122.9,   0.83528, 3,    6655.03,  117.1,   0.83528
"SCN_CN15_9292_CEI109_S", 13.8, 1,    6599.97,   -3.3,   0.82837, 2,    6599.96, -123.3,   0.82837, 3,    6599.97,  116.7,   0.82837
"SCN_CN15_9076_CEI230_ATV_S", 13.8, 1,    6654.99,   -2.9,   0.83527, 2,    6654.98, -122.9,   0.83527, 3,    6654.98,  117.1,   0.83527
"SCN_CN15_9076_CEI230_ATV", 13.8, 1,    6654.99,   -2.9,   0.83527, 2,    6654.98, -122.9,   0.83527, 3,    6654.98,  117.1,   0.83527
"SCN_CN15_9079_CEI230_ATV", 13.8, 1,    6654.94,   -2.9,   0.83527, 2,    6654.92, -122.9,   0.83527, 3,    6654.93,  117.1,   0.83527
"SCN_CN15_9078_CEI230_ATV", 13.8, 1,    6654.88,   -2.9,   0.83526, 2,    6654.87, -122.9,   0.83526, 3,    6654.88,  117.1,   0.83526
"SCN_CN15_9077_CEI230_ATV", 13.8, 1,    6654.93,   -2.9,   0.83527, 2,    6654.91, -122.9,   0.83526, 3,    6654.92,  117.1,   0.83526
"SCN_CN15_9080_CEI230_ATV", 13.8, 1,    6654.85,   -2.9,   0.83526, 2,    6654.84, -122.9,   0.83525, 3,    6654.84,  117.1,   0.83526
"SCN_CN15_9081_CEI230_ATV", 13.8, 1,    6654.79,   -2.9,   0.83525, 2,    6654.78, -122.9,   0.83525, 3,    6654.78,  117.1,   0.83525
"SCN_CN15_9082_CEI230_ATV", 13.8, 1,    6654.79,   -2.9,   0.83525, 2,    6654.78, -122.9,   0.83525, 3,    6654.78,  117.1,   0.83525
"SCN_CN15_9084_CEI230_ATV", 13.8, 1,    6654.77,   -2.9,   0.83525, 2,    6654.75, -122.9,   0.83524, 3,    6654.76,  117.1,   0.83524
"SCN_CN15_9085_CEI230_ATV", 13.8, 1,    6654.74,   -2.9,   0.83524, 2,    6654.73, -122.9,   0.83524, 3,    6654.73,  117.1,   0.83524
"SCN_CN15_9086_CEI230_ATV", 13.8, 1,    6654.71,   -2.9,   0.83524, 2,     6654.7, -122.9,   0.83524, 3,     6654.7,  117.1,   0.83524
"SCN_CN15_9292_CEI109", 13.8, 1,    6599.97,   -3.3,   0.82837, 2,    6599.96, -123.3,   0.82837, 3,    6599.97,  116.7,   0.82837
"SCN_CN15_9423_CEI109", 13.8, 1,    6599.93,   -3.3,   0.82836, 2,    6599.91, -123.3,   0.82836, 3,    6599.92,  116.7,   0.82836
"SCN_CN15_9087_CEI230_ATV", 13.8, 1,    6654.69,   -2.9,   0.83524, 2,    6654.68, -122.9,   0.83524, 3,    6654.69,  117.1,   0.83524
"SCN_CN15_9083_CEI230_ATV", 13.8, 1,    6654.77,   -2.9,   0.83525, 2,    6654.75, -122.9,   0.83524, 3,    6654.76,  117.1,   0.83525
"SCN_CN15_9088_CEI230_ATV", 13.8, 1,    6654.75,   -2.9,   0.83524, 2,    6654.73, -122.9,   0.83524, 3,    6654.74,  117.1,   0.83524
"SCN_CN15_9090_CEI230_ATV", 13.8, 1,    6654.73,   -2.9,   0.83524, 2,    6654.71, -122.9,   0.83524, 3,    6654.72,  117.1,   0.83524
"SCN_CN15_9084_CEI148_ATV", 13.8, 1,    6552.36,   -3.5,   0.82239, 2,    6552.35, -123.5,   0.82239, 3,    6552.35,  116.5,   0.82239
"SCN_CN15_9083_CEI148_ATV", 13.8, 1,    6552.73,   -3.5,   0.82244, 2,    6552.71, -123.5,   0.82244, 3,    6552.72,  116.5,   0.82244
"SCN_CN15_9086_CEI148_ATV", 13.8, 1,    6552.07,   -3.5,   0.82236, 2,    6552.06, -123.5,   0.82235, 3,    6552.06,  116.5,   0.82236
"SCN_CN15_9100_CEI201_ATV", 13.8, 1,    6707.47,   -2.9,   0.84186, 2,    6707.46, -122.9,   0.84186, 3,    6707.46,  117.1,   0.84186
"SCN_CN15_9102_CEI201_ATV", 13.8, 1,     6707.5,   -2.9,   0.84186, 2,    6707.49, -122.9,   0.84186, 3,    6707.49,  117.1,   0.84186
"SCN_CN15_9087_CEI148_ATV", 13.8, 1,    6551.48,   -3.5,   0.82228, 2,    6551.46, -123.5,   0.82228, 3,    6551.47,  116.5,   0.82228
"SCN_CN15_9088_CEI148_ATV", 13.8, 1,    6551.45,   -3.5,   0.82228, 2,    6551.44, -123.5,   0.82228, 3,    6551.44,  116.5,   0.82228
"SCN_CN15_9090_CEI148_ATV", 13.8, 1,     6551.4,   -3.5,   0.82227, 2,    6551.38, -123.5,   0.82227, 3,    6551.39,  116.5,   0.82227
"SCN_CN15_9424_CEI109", 13.8, 1,    6599.85,   -3.3,   0.82835, 2,    6599.84, -123.3,   0.82835, 3,    6599.85,  116.7,   0.82835
"SCN_CN15_9034_CEI148A_ATV", 13.8, 1,    6551.09,   -3.5,   0.82223, 2,    6551.08, -123.5,   0.82223, 3,    6551.08,  116.5,   0.82223
"SCN_CN15_9033_CEI148A_ATV", 13.8, 1,    6550.74,   -3.5,   0.82219, 2,    6550.73, -123.5,   0.82219, 3,    6550.73,  116.5,   0.82219
"SCN_CN15_9035_CEI148A_ATV", 13.8, 1,    6550.73,   -3.5,   0.82219, 2,    6550.72, -123.5,   0.82219, 3,    6550.72,  116.5,   0.82219
"SCN_CN15_9031_CEI148A_ATV", 13.8, 1,    6550.37,   -3.5,   0.82214, 2,    6550.36, -123.5,   0.82214, 3,    6550.36,  116.5,   0.82214
"SCN_CN15_9030_CEI148A_ATV", 13.8, 1,    6550.04,   -3.5,    0.8221, 2,    6550.02, -123.5,    0.8221, 3,    6550.03,  116.5,    0.8221
"SCN_CN15_9029_CEI148A_ATV_S", 13.8, 1,       6550,   -3.5,    0.8221, 2,    6549.99, -123.5,    0.8221, 3,       6550,  116.5,    0.8221
"SCN_CN15_9028_CEI148A_ATV", 13.8, 1,    6549.99,   -3.5,    0.8221, 2,    6549.98, -123.5,   0.82209, 3,    6549.98,  116.5,   0.82209
"SCN_CN15_9029_CEI148A_ATV", 13.8, 1,       6550,   -3.5,    0.8221, 2,    6549.99, -123.5,    0.8221, 3,       6550,  116.5,    0.8221
"SCN_CN15_9032_CEI148A_ATV", 13.8, 1,    6549.99,   -3.5,   0.82209, 2,    6549.97, -123.5,   0.82209, 3,    6549.98,  116.5,   0.82209
"SCN_CN15_9078_CEI201_ATV", 13.8, 1,    6549.96,   -3.5,   0.82209, 2,    6549.95, -123.5,   0.82209, 3,    6549.96,  116.5,   0.82209
"SCN_CN15_9075_CEI201_ATV", 13.8, 1,    6549.95,   -3.5,   0.82209, 2,    6549.93, -123.5,   0.82209, 3,    6549.94,  116.5,   0.82209
"SCN_CN15_9425_CEI109", 13.8, 1,    6599.79,   -3.3,   0.82835, 2,    6599.77, -123.3,   0.82834, 3,    6599.78,  116.7,   0.82834
"SCN_CN15_9025_CEI148A_ATV", 13.8, 1,    6549.71,   -3.5,   0.82206, 2,     6549.7, -123.5,   0.82206, 3,     6549.7,  116.5,   0.82206
"SCN_CN15_9023_CEI148A_ATV_S", 13.8, 1,    6549.08,   -3.5,   0.82198, 2,    6549.06, -123.5,   0.82198, 3,    6549.07,  116.5,   0.82198
"SCN_CN15_9028_CEI69A", 13.8, 1,    6549.07,   -3.5,   0.82198, 2,    6549.05, -123.5,   0.82198, 3,    6549.06,  116.5,   0.82198
"SCN_CN15_9023_CEI148A_ATV", 13.8, 1,    6549.08,   -3.5,   0.82198, 2,    6549.06, -123.5,   0.82198, 3,    6549.07,  116.5,   0.82198
"SCN_CN15_9022_CEI148A_ATV", 13.8, 1,    6549.05,   -3.5,   0.82198, 2,    6549.03, -123.5,   0.82198, 3,    6549.04,  116.5,   0.82198
"SCN_CN15_9021_CEI148A_ATV", 13.8, 1,    6549.01,   -3.5,   0.82197, 2,       6549, -123.5,   0.82197, 3,    6549.01,  116.5,   0.82197
"SCN_CN15_9020_CEI148A_ATV_S", 13.8, 1,       6549,   -3.5,   0.82197, 2,    6548.98, -123.5,   0.82197, 3,    6548.99,  116.5,   0.82197
"SCN_CN15_9020_CEI148A_ATV", 13.8, 1,       6549,   -3.5,   0.82197, 2,    6548.98, -123.5,   0.82197, 3,    6548.99,  116.5,   0.82197
"SCN_CN15_9019_CEI148A_ATV", 13.8, 1,    6548.99,   -3.5,   0.82197, 2,    6548.98, -123.5,   0.82197, 3,    6548.98,  116.5,   0.82197
"SCN_CN15_9001_CEI148A_ATV", 13.8, 1,    6547.22,   -3.5,   0.82175, 2,     6547.2, -123.5,   0.82175, 3,    6547.21,  116.5,   0.82175
"SCN_CN15_9002_CEI148A_ATV", 13.8, 1,    6547.25,   -3.5,   0.82175, 2,    6547.24, -123.5,   0.82175, 3,    6547.24,  116.5,   0.82175
"SCN_CN15_9003_CEI148A_ATV", 13.8, 1,    6547.27,   -3.5,   0.82175, 2,    6547.25, -123.5,   0.82175, 3,    6547.26,  116.5,   0.82175
"SCN_CN15_9005_CEI148A_ATV", 13.8, 1,    6547.28,   -3.5,   0.82176, 2,    6547.27, -123.5,   0.82175, 3,    6547.27,  116.5,   0.82175
"SCN_CN15_9426_CEI109", 13.8, 1,    6599.73,   -3.3,   0.82834, 2,    6599.71, -123.3,   0.82834, 3,    6599.72,  116.7,   0.82834
"SCN_CN15_9004_CEI148A_ATV", 13.8, 1,     6547.3,   -3.5,   0.82176, 2,    6547.28, -123.5,   0.82176, 3,    6547.29,  116.5,   0.82176
"SCN_CN15_9143_CEI220_ATV", 13.8, 1,    6657.15,   -3.1,   0.83554, 2,    6657.13, -123.1,   0.83554, 3,    6657.14,  116.9,   0.83554
"SCN_CN15_9144_CEI220_ATV", 13.8, 1,     6657.1,   -3.1,   0.83554, 2,    6657.09, -123.1,   0.83554, 3,    6657.09,  116.9,   0.83554
"SCN_CN15_9006_CEI148A_ATV", 13.8, 1,    6547.33,   -3.5,   0.82176, 2,    6547.32, -123.5,   0.82176, 3,    6547.32,  116.5,   0.82176
"SCN_CN15_9007_CEI148A_ATV", 13.8, 1,    6547.37,   -3.5,   0.82177, 2,    6547.35, -123.5,   0.82176, 3,    6547.36,  116.5,   0.82177
"SCN_CN15_9008_CEI148A_ATV", 13.8, 1,    6547.43,   -3.5,   0.82177, 2,    6547.41, -123.5,   0.82177, 3,    6547.42,  116.5,   0.82177
"SCN_CN15_9010_CEI148A_ATV", 13.8, 1,    6547.53,   -3.5,   0.82179, 2,    6547.52, -123.5,   0.82178, 3,    6547.52,  116.5,   0.82179
"SCN_CN15_9009_CEI148A_ATV", 13.8, 1,    6547.43,   -3.5,   0.82177, 2,    6547.41, -123.5,   0.82177, 3,    6547.42,  116.5,   0.82177
"SCN_CN15_9011_CEI148A_ATV", 13.8, 1,    6547.59,   -3.5,   0.82179, 2,    6547.58, -123.5,   0.82179, 3,    6547.58,  116.5,   0.82179
"SCN_CN15_9012_CEI148A_ATV", 13.8, 1,    6547.65,   -3.5,    0.8218, 2,    6547.63, -123.5,    0.8218, 3,    6547.64,  116.5,    0.8218
"SCN_CN15_9013_CEI148A_ATV", 13.8, 1,    6547.74,   -3.5,   0.82181, 2,    6547.73, -123.5,   0.82181, 3,    6547.74,  116.5,   0.82181
"SCN_CN15_9014_CEI148A_ATV", 13.8, 1,    6547.87,   -3.5,   0.82183, 2,    6547.85, -123.5,   0.82183, 3,    6547.86,  116.5,   0.82183
"SCN_CN15_9015_CEI148A_ATV", 13.8, 1,       6548,   -3.5,   0.82185, 2,    6547.98, -123.5,   0.82184, 3,    6547.99,  116.5,   0.82184
"SCN_CN15_9427_CEI109", 13.8, 1,    6599.66,   -3.3,   0.82833, 2,    6599.65, -123.3,   0.82833, 3,    6599.65,  116.7,   0.82833
"SCN_CN15_9016_CEI148A_ATV", 13.8, 1,    6548.13,   -3.5,   0.82186, 2,    6548.11, -123.5,   0.82186, 3,    6548.12,  116.5,   0.82186
"SCN_CN15_9017_CEI148A_ATV", 13.8, 1,    6548.19,   -3.5,   0.82187, 2,    6548.17, -123.5,   0.82187, 3,    6548.18,  116.5,   0.82187
"SCN_CN15_9018_CEI148A_ATV", 13.8, 1,    6548.26,   -3.5,   0.82188, 2,    6548.25, -123.5,   0.82188, 3,    6548.25,  116.5,   0.82188
"SCN_CN15_9020_CEI69A", 13.8, 1,    6548.45,   -3.5,    0.8219, 2,    6548.44, -123.5,    0.8219, 3,    6548.44,  116.5,    0.8219
"SCN_CN15_9018_CEI148A_ATV_S", 13.8, 1,    6548.26,   -3.5,   0.82188, 2,    6548.25, -123.5,   0.82188, 3,    6548.25,  116.5,   0.82188
"SCN_CN15_9019_CEI69A", 13.8, 1,    6548.39,   -3.5,   0.82189, 2,    6548.38, -123.5,   0.82189, 3,    6548.38,  116.5,   0.82189
"SCN_CN15_9018_CEI69A", 13.8, 1,    6548.33,   -3.5,   0.82189, 2,    6548.32, -123.5,   0.82189, 3,    6548.33,  116.5,   0.82189
"SCN_CN15_9017_CEI69A", 13.8, 1,    6548.29,   -3.5,   0.82188, 2,    6548.28, -123.5,   0.82188, 3,    6548.28,  116.5,   0.82188
"SCN_CN15_9016_CEI69A", 13.8, 1,    6548.28,   -3.5,   0.82188, 2,    6548.27, -123.5,   0.82188, 3,    6548.27,  116.5,   0.82188
"SCN_CN15_9015_CEI69A", 13.8, 1,    6548.28,   -3.5,   0.82188, 2,    6548.27, -123.5,   0.82188, 3,    6548.27,  116.5,   0.82188
"SCN_CN15_9428_CEI109", 13.8, 1,    6599.59,   -3.3,   0.82832, 2,    6599.57, -123.3,   0.82832, 3,    6599.58,  116.7,   0.82832
"SCN_CN15_9012_CEI69A_S", 13.8, 1,    6548.26,   -3.5,   0.82188, 2,    6548.25, -123.5,   0.82188, 3,    6548.25,  116.5,   0.82188
"SCN_CN15_9012_CEI69A", 13.8, 1,    6548.26,   -3.5,   0.82188, 2,    6548.25, -123.5,   0.82188, 3,    6548.25,  116.5,   0.82188
"SCN_CN15_9013_CEI69A", 13.8, 1,    6548.25,   -3.5,   0.82188, 2,    6548.24, -123.5,   0.82188, 3,    6548.24,  116.5,   0.82188
"SCN_CN15_9014_CEI69A", 13.8, 1,    6548.24,   -3.5,   0.82188, 2,    6548.23, -123.5,   0.82187, 3,    6548.23,  116.5,   0.82187
"SCN_CN15_9011_CEI69A", 13.8, 1,    6548.26,   -3.5,   0.82188, 2,    6548.25, -123.5,   0.82188, 3,    6548.25,  116.5,   0.82188
"SCN_CN15_9073_CEIRJ006_ATV", 13.8, 1,    6551.37,   -3.5,   0.82227, 2,    6551.35, -123.5,   0.82227, 3,    6551.36,  116.5,   0.82227
"SCN_CN15_9091_CEI148_ATV", 13.8, 1,    6551.36,   -3.5,   0.82227, 2,    6551.35, -123.5,   0.82227, 3,    6551.35,  116.5,   0.82227
"SCN_CN15_9092_CEI148_ATV", 13.8, 1,    6551.35,   -3.5,   0.82227, 2,    6551.34, -123.5,   0.82226, 3,    6551.34,  116.5,   0.82227
"SCN_CN15_9089_CEI148_ATV", 13.8, 1,    6551.35,   -3.5,   0.82227, 2,    6551.34, -123.5,   0.82226, 3,    6551.34,  116.5,   0.82226
"SCN_CN15_9042_CEI69A", 13.8, 1,    6551.42,   -3.5,   0.82227, 2,     6551.4, -123.5,   0.82227, 3,    6551.41,  116.5,   0.82227
"SCN_CN15_9100_CEI072", 13.8, 1,     7313.4,   -1.6,   0.91791, 2,    7313.39, -121.6,   0.91791, 3,    7313.39,  118.4,   0.91791
"SCN_CN15_9101_CEI072", 13.8, 1,    7313.34,   -1.6,    0.9179, 2,    7313.34, -121.6,    0.9179, 3,    7313.34,  118.4,    0.9179
"SCN_CN15_9102_CEI072", 13.8, 1,    7313.29,   -1.6,    0.9179, 2,    7313.28, -121.6,    0.9179, 3,    7313.28,  118.4,    0.9179
"SCN_CN15_9103_CEI072", 13.8, 1,    7313.23,   -1.6,   0.91789, 2,    7313.22, -121.6,   0.91789, 3,    7313.23,  118.4,   0.91789
"SCN_CN15_9104_CEI072", 13.8, 1,    7313.18,   -1.6,   0.91788, 2,    7313.17, -121.6,   0.91788, 3,    7313.17,  118.4,   0.91788
"SCN_CN15_9105_CEI072", 13.8, 1,    7313.12,   -1.6,   0.91788, 2,    7313.11, -121.6,   0.91788, 3,    7313.12,  118.4,   0.91788
"SCN_CN15_9491_CEI109", 13.8, 1,    6563.62,   -3.5,   0.82381, 2,     6563.6, -123.5,    0.8238, 3,    6563.61,  116.5,    0.8238
"SCN_CN15_9492_CEI109", 13.8, 1,    6563.54,   -3.5,    0.8238, 2,    6563.53, -123.5,   0.82379, 3,    6563.54,  116.5,    0.8238
"SCN_CN15_9106_CEI072", 13.8, 1,    7313.07,   -1.6,   0.91787, 2,    7313.06, -121.6,   0.91787, 3,    7313.07,  118.4,   0.91787
"SCN_CN15_9107_CEI072", 13.8, 1,    7312.96,   -1.6,   0.91786, 2,    7312.95, -121.6,   0.91786, 3,    7312.96,  118.4,   0.91786
"SCN_CN15_9108_CEI072", 13.8, 1,    7312.87,   -1.6,   0.91785, 2,    7312.87, -121.6,   0.91784, 3,    7312.87,  118.4,   0.91785
"SCN_CN15_9109_CEI072", 13.8, 1,    7312.83,   -1.6,   0.91784, 2,    7312.82, -121.6,   0.91784, 3,    7312.83,  118.4,   0.91784
"SCN_CN15_9110_CEI072", 13.8, 1,    7312.78,   -1.6,   0.91783, 2,    7312.77, -121.6,   0.91783, 3,    7312.78,  118.4,   0.91783
"SCN_CN15_9111_CEI072", 13.8, 1,    7312.73,   -1.6,   0.91783, 2,    7312.72, -121.6,   0.91783, 3,    7312.72,  118.4,   0.91783
"SCN_CN15_9112_CEI072", 13.8, 1,    7312.67,   -1.6,   0.91782, 2,    7312.66, -121.6,   0.91782, 3,    7312.67,  118.4,   0.91782
"SCN_CN15_9113_CEI072", 13.8, 1,    7312.61,   -1.6,   0.91781, 2,     7312.6, -121.6,   0.91781, 3,    7312.61,  118.4,   0.91781
...
"SCN_CN15_592-0899-22", 13.8, 1,    6788.56,   -2.7,   0.85204, 2,    6788.55, -122.7,   0.85204, 3,    6788.56,  117.3,   0.85204
"SCN_CN15_592-0899-22_S", 13.8, 1,    6788.56,   -2.7,   0.85204, 2,    6788.55, -122.7,   0.85204, 3,    6788.56,  117.3,   0.85204
"SCN_CN15_9013_CEI69B", 13.8, 1,    6798.92,   -2.7,   0.85334, 2,    6798.91, -122.7,   0.85334, 3,    6798.91,  117.3,   0.85334
"SCN_CN15_9015_CEI69B_S", 13.8, 1,    6794.57,   -2.7,   0.85279, 2,    6794.56, -122.7,   0.85279, 3,    6794.56,  117.3,   0.85279
"SCN_CN15_9012_CEI69B", 13.8, 1,    6804.15,   -2.6,   0.85399, 2,    6804.14, -122.6,   0.85399, 3,    6804.14,  117.4,   0.85399
"SCN_CN15_9011_CEI69B", 13.8, 1,    6809.27,   -2.6,   0.85464, 2,    6809.26, -122.6,   0.85464, 3,    6809.27,  117.4,   0.85464
"SCN_CN15_9162_CEI068", 13.8, 1,    6815.72,   -2.6,   0.85545, 2,    6815.71, -122.6,   0.85545, 3,    6815.72,  117.4,   0.85545
"SCN_CN15_9163_CEI068", 13.8, 1,    6822.48,   -2.6,    0.8563, 2,    6822.47, -122.6,   0.85629, 3,    6822.48,  117.4,    0.8563
"SCN_CN15_9164_CEI068", 13.8, 1,    6834.37,   -2.6,   0.85779, 2,    6834.36, -122.6,   0.85779, 3,    6834.37,  117.4,   0.85779
"SCN_CN15_9451_CEI109", 13.8, 1,    6599.08,   -3.3,   0.82826, 2,    6599.06, -123.3,   0.82825, 3,    6599.07,  116.7,   0.82826
"SCN_CN15_9169_CEI068", 13.8, 1,    6845.81,   -2.5,   0.85922, 2,     6845.8, -122.5,   0.85922, 3,     6845.8,  117.5,   0.85922
"SCN_CN15_9170_CEI068", 13.8, 1,    6845.91,   -2.5,   0.85924, 2,     6845.9, -122.5,   0.85923, 3,     6845.9,  117.5,   0.85924
"SCN_CN15_9170_CEI068_S", 13.8, 1,    6845.91,   -2.5,   0.85924, 2,     6845.9, -122.5,   0.85923, 3,     6845.9,  117.5,   0.85924
"SCN_CN15_9171_CEI068", 13.8, 1,    6858.18,   -2.5,   0.86078, 2,    6858.17, -122.5,   0.86078, 3,    6858.17,  117.5,   0.86078
"SCN_CN15_9172_CEI068", 13.8, 1,    6871.77,   -2.5,   0.86248, 2,    6871.76, -122.5,   0.86248, 3,    6871.77,  117.5,   0.86248
"SCN_CN15_9182_CEI068", 13.8, 1,    6887.56,   -2.4,   0.86446, 2,    6887.55, -122.4,   0.86446, 3,    6887.55,  117.6,   0.86446
"SCN_CN15_9181_CEI068", 13.8, 1,    6887.54,   -2.4,   0.86446, 2,    6887.53, -122.4,   0.86446, 3,    6887.53,  117.6,   0.86446
"SCN_CN15_9182_CEI068_S", 13.8, 1,    6887.56,   -2.4,   0.86446, 2,    6887.55, -122.4,   0.86446, 3,    6887.55,  117.6,   0.86446
"SCN_CN15_9183_CEI068", 13.8, 1,    6904.05,   -2.4,   0.86653, 2,    6904.03, -122.4,   0.86653, 3,    6904.04,  117.6,   0.86653
"SCN_CN15_9183_CEI068_S", 13.8, 1,    6904.05,   -2.4,   0.86653, 2,    6904.03, -122.4,   0.86653, 3,    6904.04,  117.6,   0.86653
"SCN_CN15_9186_CEI068", 13.8, 1,    6916.27,   -2.4,   0.86807, 2,    6916.26, -122.4,   0.86807, 3,    6916.27,  117.6,   0.86807
"SCN_CN15_9107_CEI068", 13.8, 1,    6923.84,   -2.4,   0.86902, 2,    6923.83, -122.4,   0.86902, 3,    6923.84,  117.6,   0.86902
"SCN_CN15_9450_CEI109", 13.8, 1,    6599.05,   -3.3,   0.82825, 2,    6599.04, -123.3,   0.82825, 3,    6599.05,  116.7,   0.82825
"SCN_CN15_9103_CEI068", 13.8, 1,    6932.17,   -2.3,   0.87006, 2,    6932.16, -122.3,   0.87006, 3,    6932.17,  117.7,   0.87006
"SCN_CN15_9092_CEI068", 13.8, 1,    6932.04,   -2.3,   0.87005, 2,    6932.03, -122.3,   0.87005, 3,    6932.03,  117.7,   0.87005
"SCN_CN15_9091_CEI068", 13.8, 1,    6931.89,   -2.3,   0.87003, 2,    6931.88, -122.3,   0.87003, 3,    6931.89,  117.7,   0.87003
"SCN_CN15_9090_CEI068", 13.8, 1,    6931.62,   -2.3,   0.86999, 2,    6931.61, -122.3,   0.86999, 3,    6931.62,  117.7,   0.86999
"SCN_CN15_9089_CEI068_S", 13.8, 1,    6931.45,   -2.3,   0.86997, 2,    6931.44, -122.3,   0.86997, 3,    6931.45,  117.7,   0.86997
"SCN_CN15_9086_CEI068", 13.8, 1,    6931.23,   -2.3,   0.86994, 2,    6931.22, -122.3,   0.86994, 3,    6931.22,  117.7,   0.86994
"SCN_CN15_9085_CEI068", 13.8, 1,    6930.94,   -2.3,   0.86991, 2,    6930.93, -122.3,   0.86991, 3,    6930.94,  117.7,   0.86991
"SCN_CN15_9086_CEI068_S", 13.8, 1,    6931.23,   -2.3,   0.86994, 2,    6931.22, -122.3,   0.86994, 3,    6931.22,  117.7,   0.86994
"SCN_CN15_9082_CEI068", 13.8, 1,    6930.61,   -2.3,   0.86987, 2,     6930.6, -122.3,   0.86987, 3,    6930.61,  117.7,   0.86987
"SCN_CN15_9081_CEI068", 13.8, 1,    6930.27,   -2.4,   0.86982, 2,    6930.26, -122.4,   0.86982, 3,    6930.26,  117.6,   0.86982
"SCN_CN15_9080_CEI068", 13.8, 1,    6929.93,   -2.4,   0.86978, 2,    6929.92, -122.4,   0.86978, 3,    6929.93,  117.6,   0.86978
"SCN_CN15_9026_CEI201_ATV", 13.8, 1,    6559.87,   -3.5,   0.82334, 2,    6559.86, -123.5,   0.82333, 3,    6559.86,  116.5,   0.82333
"SCN_CN15_9027_CEI201_ATV", 13.8, 1,    6560.02,   -3.5,   0.82335, 2,       6560, -123.5,   0.82335, 3,    6560.01,  116.5,   0.82335
"SCN_CN15_9449_CEI109", 13.8, 1,    6599.03,   -3.3,   0.82825, 2,    6599.02, -123.3,   0.82825, 3,    6599.02,  116.7,   0.82825
"SCN_CN15_9079_CEI068", 13.8, 1,     6929.6,   -2.4,   0.86974, 2,    6929.59, -122.4,   0.86974, 3,    6929.59,  117.6,   0.86974
"SCN_CN15_9078_CEI068", 13.8, 1,    6929.27,   -2.4,    0.8697, 2,    6929.26, -122.4,    0.8697, 3,    6929.26,  117.6,    0.8697
"SCN_CN15_9077_CEI068", 13.8, 1,    6928.93,   -2.4,   0.86966, 2,    6928.92, -122.4,   0.86966, 3,    6928.93,  117.6,   0.86966
"SCN_CN15_9076_CEI068", 13.8, 1,    6928.62,   -2.4,   0.86962, 2,    6928.61, -122.4,   0.86962, 3,    6928.61,  117.6,   0.86962
"SCN_CN15_9075_CEI068", 13.8, 1,    6928.31,   -2.4,   0.86958, 2,     6928.3, -122.4,   0.86958, 3,     6928.3,  117.6,   0.86958
"SCN_CN15_9074_CEI068", 13.8, 1,    6927.99,   -2.4,   0.86954, 2,    6927.98, -122.4,   0.86954, 3,    6927.99,  117.6,   0.86954
"SCN_CN15_9073_CEI068", 13.8, 1,    6927.66,   -2.4,    0.8695, 2,    6927.65, -122.4,    0.8695, 3,    6927.66,  117.6,    0.8695
"SCN_CN15_9072_CEI068", 13.8, 1,    6927.35,   -2.4,   0.86946, 2,    6927.34, -122.4,   0.86946, 3,    6927.35,  117.6,   0.86946
"SCN_CN15_9071_CEI068", 13.8, 1,    6927.05,   -2.4,   0.86942, 2,    6927.04, -122.4,   0.86942, 3,    6927.04,  117.6,   0.86942
"SCN_CN15_9070_CEI068", 13.8, 1,    6926.82,   -2.4,   0.86939, 2,    6926.81, -122.4,   0.86939, 3,    6926.82,  117.6,   0.86939
...